@<TRIPOS>MOLECULE
SAM
   50    52     1     0     0
SMALL
bcc


@<TRIPOS>ATOM
      1 N            4.6080     4.5930    -7.3180 n4         1 SAM      -1.088600
      2 HN1          5.4130     4.5050    -8.0940 hn         1 SAM       0.272467
      3 HN2          4.6120     5.5390    -6.7380 hn         1 SAM       0.272467
      4 HN3          4.6020     5.5370    -6.7340 hn         1 SAM       0.272467
      5 CA           3.6080     3.5690    -7.5910 c3         1 SAM       0.109500
      6 HA           3.9960     2.5720    -7.8810 hx         1 SAM       0.108700
      7 C            3.0180     3.7810    -8.9580 c          1 SAM       1.012600
      8 O            3.2710     4.8390    -9.6210 o          1 SAM      -0.480800
      9 OXT          2.3150     2.8740    -9.4220 o          1 SAM      -0.480800
     10 CB           2.5170     3.5600    -6.5160 c3         1 SAM      -0.072400
     11 HB1          1.5370     3.1870    -6.9090 hc         1 SAM       0.094700
     12 HB2          2.2840     4.6090    -6.2030 hc         1 SAM       0.094700
     13 CG           2.8670     2.6260    -5.3230 c3         1 SAM      -0.006100
     14 HG1          1.8910     2.6270    -4.7740 h1         1 SAM       0.129200
     15 HG2          3.5790     2.9950    -4.5500 h1         1 SAM       0.129200
     16 SD           3.1250     0.9990    -5.7660 s4         1 SAM       0.043100
     17 CE           2.1680     0.0730    -4.7250 c3         1 SAM      -0.079800
     18 HE1          1.7670    -0.6000    -5.5270 h1         1 SAM       0.130367
     19 HE2          1.8530     0.0190    -3.6650 h1         1 SAM       0.130367
     20 HE3          1.8550     0.0150    -3.6640 h1         1 SAM       0.130367
     21 C5'          4.7290     0.3770    -5.5880 c3         1 SAM      -0.079100
     22 H5'1         4.5450    -0.6530    -5.9810 h1         1 SAM       0.129700
     23 H5'2         4.8560     0.3190    -4.4830 h1         1 SAM       0.129700
     24 C4'          5.8620     0.9680    -6.4430 c3         1 SAM       0.113100
     25 H4'          5.6250     0.7440    -7.5080 h1         1 SAM       0.092700
     26 O4'          6.0930     2.3530    -6.0750 os         1 SAM      -0.442600
     27 C3'          7.2280     0.3400    -6.2020 c3         1 SAM       0.134100
     28 H3'          7.3680     0.0340    -5.1380 h1         1 SAM       0.096700
     29 O3'          7.4800    -0.9480    -6.8010 oh         1 SAM      -0.573800
     30 HO3'         8.4230    -1.3780    -6.4240 ho         1 SAM       0.441000
     31 C2'          8.1840     1.4450    -6.6220 c3         1 SAM       0.088100
     32 H2'          9.1940     1.2660    -6.1870 h1         1 SAM       0.115700
     33 O2'          8.3600     1.5910    -8.0560 oh         1 SAM      -0.596800
     34 HO2'         9.4370     1.5660    -8.3210 ho         1 SAM       0.446000
     35 C1'          7.4750     2.6680    -6.0960 c3         1 SAM       0.244800
     36 H1'          7.6810     3.5770    -6.7050 h2         1 SAM       0.117700
     37 N9           7.8620     3.0710    -4.7280 na         1 SAM      -0.308000
     38 C8           7.0940     2.9340    -3.6240 cc         1 SAM       0.386700
     39 H8           6.1780     2.5350    -3.1500 h5         1 SAM       0.055800
     40 N7           7.7020     3.4440    -2.5460 nd         1 SAM      -0.518100
     41 C5           8.8920     3.9230    -2.9840 ca         1 SAM      -0.241200
     42 C6          10.0080     4.5320    -2.3560 ca         1 SAM       0.778200
     43 N6          10.0170     4.7950    -1.0150 nh         1 SAM      -0.943500
     44 HN61        10.6200     4.1670    -0.3270 hn         1 SAM       0.457800
     45 HN62         9.4600     5.6610    -0.6070 hn         1 SAM       0.457800
     46 N1          11.0550     4.8850    -3.1320 nb         1 SAM      -0.780000
     47 C2          11.0950     4.6480    -4.4430 ca         1 SAM       0.709900
     48 H2          12.0070     4.9510    -4.9880 h5         1 SAM       0.065100
     49 N3          10.0880     4.0360    -5.0850 nb         1 SAM      -0.770000
     50 C4           8.9740     3.6800    -4.3990 ca         1 SAM       0.471800
@<TRIPOS>BOND
     1     1     2 1   
     2     1     3 1   
     3     1     4 1   
     4     1     5 1   
     5     5     6 1   
     6     5     7 1   
     7     5    10 1   
     8     7     8 1   
     9     7     9 1   
    10    10    11 1   
    11    10    12 1   
    12    10    13 1   
    13    13    14 1   
    14    13    15 1   
    15    13    16 1   
    16    16    17 1   
    17    16    21 1   
    18    17    18 1   
    19    17    19 1   
    20    17    20 1   
    21    21    22 1   
    22    21    23 1   
    23    21    24 1   
    24    24    25 1   
    25    24    26 1   
    26    24    27 1   
    27    26    35 1   
    28    27    28 1   
    29    27    29 1   
    30    27    31 1   
    31    29    30 1   
    32    31    32 1   
    33    31    33 1   
    34    31    35 1   
    35    33    34 1   
    36    35    36 1   
    37    35    37 1   
    38    37    38 1   
    39    37    50 1   
    40    38    39 1   
    41    38    40 2   
    42    40    41 1   
    43    41    42 ar  
    44    41    50 ar  
    45    42    43 1   
    46    42    46 ar  
    47    43    44 1   
    48    43    45 1   
    49    46    47 ar  
    50    47    48 1   
    51    47    49 ar  
    52    49    50 ar  
@<TRIPOS>SUBSTRUCTURE
     1 SAM         1 TEMP              0 ****  ****    0 ROOT
